# generated using pymatgen
data_Ca2PHO4
_symmetry_space_group_name_H-M   'P 1'
_cell_length_a   9.41200000
_cell_length_b   9.41200000
_cell_length_c   6.85300000
_cell_angle_alpha   90.00000000
_cell_angle_beta   90.00000000
_cell_angle_gamma   120.00000000
_symmetry_Int_Tables_number   1
_chemical_formula_structural   Ca2PHO4
_chemical_formula_sum   'Ca2 P1 H1 O4'
_cell_volume   525.74505983
_cell_formula_units_Z   1
loop_
 _symmetry_equiv_pos_site_id
 _symmetry_equiv_pos_as_xyz
  1  'x, y, z'
loop_
 _atom_site_type_symbol
 _atom_site_label
 _atom_site_symmetry_multiplicity
 _atom_site_fract_x
 _atom_site_fract_y
 _atom_site_fract_z
 _atom_site_occupancy
  Ca  Ca0  1  0.66666667  0.33333333  0.00110000  1.0
  Ca  Ca1  1  0.24410000  0.99330000  0.24470000  1.0
  P  P2  1  0.39620000  0.37460000  0.24690000  1.0
  H  H7  1  0.00000000  0.00000000  0.06080000  1.0
  O  O3  1  0.33670000  0.48978000  0.24780000  1.0
  O  O4  1  0.57090000  0.45740000  0.24270000  1.0
  O  O5  1  0.33390000  0.27090000  0.08280000  1.0
  O  O6  1  0.00000000  0.00000000  0.20720000  1.0
